# Draft CIF file generated with Atomsk

data_I

_audit_creation_date      'Dec. 19, 2024'
_audit_creation_method    'Draft CIF file generated with Atomsk'
 
_chemical_name_common             ?
_chemical_melting_point           ?
_chemical_formula_iupac           'Cr1000'
_chemical_formula_moiety          'Cr1000'
_chemical_formula_sum             'Cr1000'
_chemical_formula_weight          51996.100
_chemical_compound_source         ?
_chemical_absolute_configuration  ?
_exptl_crystal_description        'EDIT-ENTRY'
_diffrn_measurement_device_type   'EDIT-ENTRY'
 
_space_group_IT_number            1
_space_group_crystal_system       tetragonal
_symmetry_space_group_name_Hall   'P 1'
_symmetry_space_group_name_H-M    'P 1'
 
loop_
_space_group_symop_operation_xyz
'+x,+y,+z'
 
_cell_length_a                    34.0830
_cell_length_b                    34.0830
_cell_length_c                    57.9120
_cell_angle_alpha                 90.0000
_cell_angle_beta                  90.0000
_cell_angle_gamma                 90.0000
_cell_volume                      67273.5263
 
loop_
 _atom_site_label
 _atom_site_type_symbol
 _atom_site_fract_x
 _atom_site_fract_y
 _atom_site_fract_z
Cr1  Cr  0.000000  0.000000  0.052632
Cr2  Cr  0.111111  0.000000  0.052632
Cr3  Cr  0.222222  0.000000  0.052632
Cr4  Cr  0.333333  0.000000  0.052632
Cr5  Cr  0.444444  0.000000  0.052632
Cr6  Cr  0.555556  0.000000  0.052632
Cr7  Cr  0.666667  0.000000  0.052632
Cr8  Cr  0.777778  0.000000  0.052632
Cr9  Cr  0.888889  0.000000  0.052632
Cr10  Cr  1.000000  0.000000  0.052632
Cr11  Cr  0.000000  0.111111  0.052632
Cr12  Cr  0.111111  0.111111  0.052632
Cr13  Cr  0.222222  0.111111  0.052632
Cr14  Cr  0.333333  0.111111  0.052632
Cr15  Cr  0.444444  0.111111  0.052632
Cr16  Cr  0.555556  0.111111  0.052632
Cr17  Cr  0.666667  0.111111  0.052632
Cr18  Cr  0.777778  0.111111  0.052632
Cr19  Cr  0.888889  0.111111  0.052632
Cr20  Cr  1.000000  0.111111  0.052632
Cr21  Cr  0.000000  0.222222  0.052632
Cr22  Cr  0.111111  0.222222  0.052632
Cr23  Cr  0.222222  0.222222  0.052632
Cr24  Cr  0.333333  0.222222  0.052632
Cr25  Cr  0.444444  0.222222  0.052632
Cr26  Cr  0.555556  0.222222  0.052632
Cr27  Cr  0.666667  0.222222  0.052632
Cr28  Cr  0.777778  0.222222  0.052632
Cr29  Cr  0.888889  0.222222  0.052632
Cr30  Cr  1.000000  0.222222  0.052632
Cr31  Cr  0.000000  0.333333  0.052632
Cr32  Cr  0.111111  0.333333  0.052632
Cr33  Cr  0.222222  0.333333  0.052632
Cr34  Cr  0.333333  0.333333  0.052632
Cr35  Cr  0.444444  0.333333  0.052632
Cr36  Cr  0.555556  0.333333  0.052632
Cr37  Cr  0.666667  0.333333  0.052632
Cr38  Cr  0.777778  0.333333  0.052632
Cr39  Cr  0.888889  0.333333  0.052632
Cr40  Cr  1.000000  0.333333  0.052632
Cr41  Cr  0.000000  0.444444  0.052632
Cr42  Cr  0.111111  0.444444  0.052632
Cr43  Cr  0.222222  0.444444  0.052632
Cr44  Cr  0.333333  0.444444  0.052632
Cr45  Cr  0.444444  0.444444  0.052632
Cr46  Cr  0.555556  0.444444  0.052632
Cr47  Cr  0.666667  0.444444  0.052632
Cr48  Cr  0.777778  0.444444  0.052632
Cr49  Cr  0.888889  0.444444  0.052632
Cr50  Cr  1.000000  0.444444  0.052632
Cr51  Cr  0.000000  0.000000  0.157895
Cr52  Cr  0.111111  0.000000  0.157895
Cr53  Cr  0.222222  0.000000  0.157895
Cr54  Cr  0.333333  0.000000  0.157895
Cr55  Cr  0.444444  0.000000  0.157895
Cr56  Cr  0.555556  0.000000  0.157895
Cr57  Cr  0.666667  0.000000  0.157895
Cr58  Cr  0.777778  0.000000  0.157895
Cr59  Cr  0.888889  0.000000  0.157895
Cr60  Cr  1.000000  0.000000  0.157895
Cr61  Cr  0.000000  0.111111  0.157895
Cr62  Cr  0.111111  0.111111  0.157895
Cr63  Cr  0.222222  0.111111  0.157895
Cr64  Cr  0.333333  0.111111  0.157895
Cr65  Cr  0.444444  0.111111  0.157895
Cr66  Cr  0.555556  0.111111  0.157895
Cr67  Cr  0.666667  0.111111  0.157895
Cr68  Cr  0.777778  0.111111  0.157895
Cr69  Cr  0.888889  0.111111  0.157895
Cr70  Cr  1.000000  0.111111  0.157895
Cr71  Cr  0.000000  0.222222  0.157895
Cr72  Cr  0.111111  0.222222  0.157895
Cr73  Cr  0.222222  0.222222  0.157895
Cr74  Cr  0.333333  0.222222  0.157895
Cr75  Cr  0.444444  0.222222  0.157895
Cr76  Cr  0.555556  0.222222  0.157895
Cr77  Cr  0.666667  0.222222  0.157895
Cr78  Cr  0.777778  0.222222  0.157895
Cr79  Cr  0.888889  0.222222  0.157895
Cr80  Cr  1.000000  0.222222  0.157895
Cr81  Cr  0.000000  0.333333  0.157895
Cr82  Cr  0.111111  0.333333  0.157895
Cr83  Cr  0.222222  0.333333  0.157895
Cr84  Cr  0.333333  0.333333  0.157895
Cr85  Cr  0.444444  0.333333  0.157895
Cr86  Cr  0.555556  0.333333  0.157895
Cr87  Cr  0.666667  0.333333  0.157895
Cr88  Cr  0.777778  0.333333  0.157895
Cr89  Cr  0.888889  0.333333  0.157895
Cr90  Cr  1.000000  0.333333  0.157895
Cr91  Cr  0.000000  0.444444  0.157895
Cr92  Cr  0.111111  0.444444  0.157895
Cr93  Cr  0.222222  0.444444  0.157895
Cr94  Cr  0.333333  0.444444  0.157895
Cr95  Cr  0.444444  0.444444  0.157895
Cr96  Cr  0.555556  0.444444  0.157895
Cr97  Cr  0.666667  0.444444  0.157895
Cr98  Cr  0.777778  0.444444  0.157895
Cr99  Cr  0.888889  0.444444  0.157895
Cr100  Cr  1.000000  0.444444  0.157895
Cr101  Cr  0.000000  0.555556  0.052632
Cr102  Cr  0.111111  0.555556  0.052632
Cr103  Cr  0.222222  0.555556  0.052632
Cr104  Cr  0.333333  0.555556  0.052632
Cr105  Cr  0.444444  0.555556  0.052632
Cr106  Cr  0.555556  0.555556  0.052632
Cr107  Cr  0.666667  0.555556  0.052632
Cr108  Cr  0.777778  0.555556  0.052632
Cr109  Cr  0.888889  0.555556  0.052632
Cr110  Cr  1.000000  0.555556  0.052632
Cr111  Cr  0.000000  0.666667  0.052632
Cr112  Cr  0.111111  0.666667  0.052632
Cr113  Cr  0.222222  0.666667  0.052632
Cr114  Cr  0.333333  0.666667  0.052632
Cr115  Cr  0.444444  0.666667  0.052632
Cr116  Cr  0.555556  0.666667  0.052632
Cr117  Cr  0.666667  0.666667  0.052632
Cr118  Cr  0.777778  0.666667  0.052632
Cr119  Cr  0.888889  0.666667  0.052632
Cr120  Cr  1.000000  0.666667  0.052632
Cr121  Cr  0.000000  0.777778  0.052632
Cr122  Cr  0.111111  0.777778  0.052632
Cr123  Cr  0.222222  0.777778  0.052632
Cr124  Cr  0.333333  0.777778  0.052632
Cr125  Cr  0.444444  0.777778  0.052632
Cr126  Cr  0.555556  0.777778  0.052632
Cr127  Cr  0.666667  0.777778  0.052632
Cr128  Cr  0.777778  0.777778  0.052632
Cr129  Cr  0.888889  0.777778  0.052632
Cr130  Cr  1.000000  0.777778  0.052632
Cr131  Cr  0.000000  0.888889  0.052632
Cr132  Cr  0.111111  0.888889  0.052632
Cr133  Cr  0.222222  0.888889  0.052632
Cr134  Cr  0.333333  0.888889  0.052632
Cr135  Cr  0.444444  0.888889  0.052632
Cr136  Cr  0.555556  0.888889  0.052632
Cr137  Cr  0.666667  0.888889  0.052632
Cr138  Cr  0.777778  0.888889  0.052632
Cr139  Cr  0.888889  0.888889  0.052632
Cr140  Cr  1.000000  0.888889  0.052632
Cr141  Cr  0.000000  1.000000  0.052632
Cr142  Cr  0.111111  1.000000  0.052632
Cr143  Cr  0.222222  1.000000  0.052632
Cr144  Cr  0.333333  1.000000  0.052632
Cr145  Cr  0.444444  1.000000  0.052632
Cr146  Cr  0.555556  1.000000  0.052632
Cr147  Cr  0.666667  1.000000  0.052632
Cr148  Cr  0.777778  1.000000  0.052632
Cr149  Cr  0.888889  1.000000  0.052632
Cr150  Cr  1.000000  1.000000  0.052632
Cr151  Cr  0.000000  0.555556  0.157895
Cr152  Cr  0.111111  0.555556  0.157895
Cr153  Cr  0.222222  0.555556  0.157895
Cr154  Cr  0.333333  0.555556  0.157895
Cr155  Cr  0.444444  0.555556  0.157895
Cr156  Cr  0.555556  0.555556  0.157895
Cr157  Cr  0.666667  0.555556  0.157895
Cr158  Cr  0.777778  0.555556  0.157895
Cr159  Cr  0.888889  0.555556  0.157895
Cr160  Cr  1.000000  0.555556  0.157895
Cr161  Cr  0.000000  0.666667  0.157895
Cr162  Cr  0.111111  0.666667  0.157895
Cr163  Cr  0.222222  0.666667  0.157895
Cr164  Cr  0.333333  0.666667  0.157895
Cr165  Cr  0.444444  0.666667  0.157895
Cr166  Cr  0.555556  0.666667  0.157895
Cr167  Cr  0.666667  0.666667  0.157895
Cr168  Cr  0.777778  0.666667  0.157895
Cr169  Cr  0.888889  0.666667  0.157895
Cr170  Cr  1.000000  0.666667  0.157895
Cr171  Cr  0.000000  0.777778  0.157895
Cr172  Cr  0.111111  0.777778  0.157895
Cr173  Cr  0.222222  0.777778  0.157895
Cr174  Cr  0.333333  0.777778  0.157895
Cr175  Cr  0.444444  0.777778  0.157895
Cr176  Cr  0.555556  0.777778  0.157895
Cr177  Cr  0.666667  0.777778  0.157895
Cr178  Cr  0.777778  0.777778  0.157895
Cr179  Cr  0.888889  0.777778  0.157895
Cr180  Cr  1.000000  0.777778  0.157895
Cr181  Cr  0.000000  0.888889  0.157895
Cr182  Cr  0.111111  0.888889  0.157895
Cr183  Cr  0.222222  0.888889  0.157895
Cr184  Cr  0.333333  0.888889  0.157895
Cr185  Cr  0.444444  0.888889  0.157895
Cr186  Cr  0.555556  0.888889  0.157895
Cr187  Cr  0.666667  0.888889  0.157895
Cr188  Cr  0.777778  0.888889  0.157895
Cr189  Cr  0.888889  0.888889  0.157895
Cr190  Cr  1.000000  0.888889  0.157895
Cr191  Cr  0.000000  1.000000  0.157895
Cr192  Cr  0.111111  1.000000  0.157895
Cr193  Cr  0.222222  1.000000  0.157895
Cr194  Cr  0.333333  1.000000  0.157895
Cr195  Cr  0.444444  1.000000  0.157895
Cr196  Cr  0.555556  1.000000  0.157895
Cr197  Cr  0.666667  1.000000  0.157895
Cr198  Cr  0.777778  1.000000  0.157895
Cr199  Cr  0.888889  1.000000  0.157895
Cr200  Cr  1.000000  1.000000  0.157895
Cr201  Cr  0.000000  0.000000  0.263158
Cr202  Cr  0.111111  0.000000  0.263158
Cr203  Cr  0.222222  0.000000  0.263158
Cr204  Cr  0.333333  0.000000  0.263158
Cr205  Cr  0.444444  0.000000  0.263158
Cr206  Cr  0.555556  0.000000  0.263158
Cr207  Cr  0.666667  0.000000  0.263158
Cr208  Cr  0.777778  0.000000  0.263158
Cr209  Cr  0.888889  0.000000  0.263158
Cr210  Cr  1.000000  0.000000  0.263158
Cr211  Cr  0.000000  0.111111  0.263158
Cr212  Cr  0.111111  0.111111  0.263158
Cr213  Cr  0.222222  0.111111  0.263158
Cr214  Cr  0.333333  0.111111  0.263158
Cr215  Cr  0.444444  0.111111  0.263158
Cr216  Cr  0.555556  0.111111  0.263158
Cr217  Cr  0.666667  0.111111  0.263158
Cr218  Cr  0.777778  0.111111  0.263158
Cr219  Cr  0.888889  0.111111  0.263158
Cr220  Cr  1.000000  0.111111  0.263158
Cr221  Cr  0.000000  0.222222  0.263158
Cr222  Cr  0.111111  0.222222  0.263158
Cr223  Cr  0.222222  0.222222  0.263158
Cr224  Cr  0.333333  0.222222  0.263158
Cr225  Cr  0.444444  0.222222  0.263158
Cr226  Cr  0.555556  0.222222  0.263158
Cr227  Cr  0.666667  0.222222  0.263158
Cr228  Cr  0.777778  0.222222  0.263158
Cr229  Cr  0.888889  0.222222  0.263158
Cr230  Cr  1.000000  0.222222  0.263158
Cr231  Cr  0.000000  0.333333  0.263158
Cr232  Cr  0.111111  0.333333  0.263158
Cr233  Cr  0.222222  0.333333  0.263158
Cr234  Cr  0.333333  0.333333  0.263158
Cr235  Cr  0.444444  0.333333  0.263158
Cr236  Cr  0.555556  0.333333  0.263158
Cr237  Cr  0.666667  0.333333  0.263158
Cr238  Cr  0.777778  0.333333  0.263158
Cr239  Cr  0.888889  0.333333  0.263158
Cr240  Cr  1.000000  0.333333  0.263158
Cr241  Cr  0.000000  0.444444  0.263158
Cr242  Cr  0.111111  0.444444  0.263158
Cr243  Cr  0.222222  0.444444  0.263158
Cr244  Cr  0.333333  0.444444  0.263158
Cr245  Cr  0.444444  0.444444  0.263158
Cr246  Cr  0.555556  0.444444  0.263158
Cr247  Cr  0.666667  0.444444  0.263158
Cr248  Cr  0.777778  0.444444  0.263158
Cr249  Cr  0.888889  0.444444  0.263158
Cr250  Cr  1.000000  0.444444  0.263158
Cr251  Cr  0.000000  0.000000  0.368421
Cr252  Cr  0.111111  0.000000  0.368421
Cr253  Cr  0.222222  0.000000  0.368421
Cr254  Cr  0.333333  0.000000  0.368421
Cr255  Cr  0.444444  0.000000  0.368421
Cr256  Cr  0.555556  0.000000  0.368421
Cr257  Cr  0.666667  0.000000  0.368421
Cr258  Cr  0.777778  0.000000  0.368421
Cr259  Cr  0.888889  0.000000  0.368421
Cr260  Cr  1.000000  0.000000  0.368421
Cr261  Cr  0.000000  0.111111  0.368421
Cr262  Cr  0.111111  0.111111  0.368421
Cr263  Cr  0.222222  0.111111  0.368421
Cr264  Cr  0.333333  0.111111  0.368421
Cr265  Cr  0.444444  0.111111  0.368421
Cr266  Cr  0.555556  0.111111  0.368421
Cr267  Cr  0.666667  0.111111  0.368421
Cr268  Cr  0.777778  0.111111  0.368421
Cr269  Cr  0.888889  0.111111  0.368421
Cr270  Cr  1.000000  0.111111  0.368421
Cr271  Cr  0.000000  0.222222  0.368421
Cr272  Cr  0.111111  0.222222  0.368421
Cr273  Cr  0.222222  0.222222  0.368421
Cr274  Cr  0.333333  0.222222  0.368421
Cr275  Cr  0.444444  0.222222  0.368421
Cr276  Cr  0.555556  0.222222  0.368421
Cr277  Cr  0.666667  0.222222  0.368421
Cr278  Cr  0.777778  0.222222  0.368421
Cr279  Cr  0.888889  0.222222  0.368421
Cr280  Cr  1.000000  0.222222  0.368421
Cr281  Cr  0.000000  0.333333  0.368421
Cr282  Cr  0.111111  0.333333  0.368421
Cr283  Cr  0.222222  0.333333  0.368421
Cr284  Cr  0.333333  0.333333  0.368421
Cr285  Cr  0.444444  0.333333  0.368421
Cr286  Cr  0.555556  0.333333  0.368421
Cr287  Cr  0.666667  0.333333  0.368421
Cr288  Cr  0.777778  0.333333  0.368421
Cr289  Cr  0.888889  0.333333  0.368421
Cr290  Cr  1.000000  0.333333  0.368421
Cr291  Cr  0.000000  0.444444  0.368421
Cr292  Cr  0.111111  0.444444  0.368421
Cr293  Cr  0.222222  0.444444  0.368421
Cr294  Cr  0.333333  0.444444  0.368421
Cr295  Cr  0.444444  0.444444  0.368421
Cr296  Cr  0.555556  0.444444  0.368421
Cr297  Cr  0.666667  0.444444  0.368421
Cr298  Cr  0.777778  0.444444  0.368421
Cr299  Cr  0.888889  0.444444  0.368421
Cr300  Cr  1.000000  0.444444  0.368421
Cr301  Cr  0.000000  0.555556  0.263158
Cr302  Cr  0.111111  0.555556  0.263158
Cr303  Cr  0.222222  0.555556  0.263158
Cr304  Cr  0.333333  0.555556  0.263158
Cr305  Cr  0.444444  0.555556  0.263158
Cr306  Cr  0.555556  0.555556  0.263158
Cr307  Cr  0.666667  0.555556  0.263158
Cr308  Cr  0.777778  0.555556  0.263158
Cr309  Cr  0.888889  0.555556  0.263158
Cr310  Cr  1.000000  0.555556  0.263158
Cr311  Cr  0.000000  0.666667  0.263158
Cr312  Cr  0.111111  0.666667  0.263158
Cr313  Cr  0.222222  0.666667  0.263158
Cr314  Cr  0.333333  0.666667  0.263158
Cr315  Cr  0.444444  0.666667  0.263158
Cr316  Cr  0.555556  0.666667  0.263158
Cr317  Cr  0.666667  0.666667  0.263158
Cr318  Cr  0.777778  0.666667  0.263158
Cr319  Cr  0.888889  0.666667  0.263158
Cr320  Cr  1.000000  0.666667  0.263158
Cr321  Cr  0.000000  0.777778  0.263158
Cr322  Cr  0.111111  0.777778  0.263158
Cr323  Cr  0.222222  0.777778  0.263158
Cr324  Cr  0.333333  0.777778  0.263158
Cr325  Cr  0.444444  0.777778  0.263158
Cr326  Cr  0.555556  0.777778  0.263158
Cr327  Cr  0.666667  0.777778  0.263158
Cr328  Cr  0.777778  0.777778  0.263158
Cr329  Cr  0.888889  0.777778  0.263158
Cr330  Cr  1.000000  0.777778  0.263158
Cr331  Cr  0.000000  0.888889  0.263158
Cr332  Cr  0.111111  0.888889  0.263158
Cr333  Cr  0.222222  0.888889  0.263158
Cr334  Cr  0.333333  0.888889  0.263158
Cr335  Cr  0.444444  0.888889  0.263158
Cr336  Cr  0.555556  0.888889  0.263158
Cr337  Cr  0.666667  0.888889  0.263158
Cr338  Cr  0.777778  0.888889  0.263158
Cr339  Cr  0.888889  0.888889  0.263158
Cr340  Cr  1.000000  0.888889  0.263158
Cr341  Cr  0.000000  1.000000  0.263158
Cr342  Cr  0.111111  1.000000  0.263158
Cr343  Cr  0.222222  1.000000  0.263158
Cr344  Cr  0.333333  1.000000  0.263158
Cr345  Cr  0.444444  1.000000  0.263158
Cr346  Cr  0.555556  1.000000  0.263158
Cr347  Cr  0.666667  1.000000  0.263158
Cr348  Cr  0.777778  1.000000  0.263158
Cr349  Cr  0.888889  1.000000  0.263158
Cr350  Cr  1.000000  1.000000  0.263158
Cr351  Cr  0.000000  0.555556  0.368421
Cr352  Cr  0.111111  0.555556  0.368421
Cr353  Cr  0.222222  0.555556  0.368421
Cr354  Cr  0.333333  0.555556  0.368421
Cr355  Cr  0.444444  0.555556  0.368421
Cr356  Cr  0.555556  0.555556  0.368421
Cr357  Cr  0.666667  0.555556  0.368421
Cr358  Cr  0.777778  0.555556  0.368421
Cr359  Cr  0.888889  0.555556  0.368421
Cr360  Cr  1.000000  0.555556  0.368421
Cr361  Cr  0.000000  0.666667  0.368421
Cr362  Cr  0.111111  0.666667  0.368421
Cr363  Cr  0.222222  0.666667  0.368421
Cr364  Cr  0.333333  0.666667  0.368421
Cr365  Cr  0.444444  0.666667  0.368421
Cr366  Cr  0.555556  0.666667  0.368421
Cr367  Cr  0.666667  0.666667  0.368421
Cr368  Cr  0.777778  0.666667  0.368421
Cr369  Cr  0.888889  0.666667  0.368421
Cr370  Cr  1.000000  0.666667  0.368421
Cr371  Cr  0.000000  0.777778  0.368421
Cr372  Cr  0.111111  0.777778  0.368421
Cr373  Cr  0.222222  0.777778  0.368421
Cr374  Cr  0.333333  0.777778  0.368421
Cr375  Cr  0.444444  0.777778  0.368421
Cr376  Cr  0.555556  0.777778  0.368421
Cr377  Cr  0.666667  0.777778  0.368421
Cr378  Cr  0.777778  0.777778  0.368421
Cr379  Cr  0.888889  0.777778  0.368421
Cr380  Cr  1.000000  0.777778  0.368421
Cr381  Cr  0.000000  0.888889  0.368421
Cr382  Cr  0.111111  0.888889  0.368421
Cr383  Cr  0.222222  0.888889  0.368421
Cr384  Cr  0.333333  0.888889  0.368421
Cr385  Cr  0.444444  0.888889  0.368421
Cr386  Cr  0.555556  0.888889  0.368421
Cr387  Cr  0.666667  0.888889  0.368421
Cr388  Cr  0.777778  0.888889  0.368421
Cr389  Cr  0.888889  0.888889  0.368421
Cr390  Cr  1.000000  0.888889  0.368421
Cr391  Cr  0.000000  1.000000  0.368421
Cr392  Cr  0.111111  1.000000  0.368421
Cr393  Cr  0.222222  1.000000  0.368421
Cr394  Cr  0.333333  1.000000  0.368421
Cr395  Cr  0.444444  1.000000  0.368421
Cr396  Cr  0.555556  1.000000  0.368421
Cr397  Cr  0.666667  1.000000  0.368421
Cr398  Cr  0.777778  1.000000  0.368421
Cr399  Cr  0.888889  1.000000  0.368421
Cr400  Cr  1.000000  1.000000  0.368421
Cr401  Cr  0.000000  0.000000  0.473684
Cr402  Cr  0.111111  0.000000  0.473684
Cr403  Cr  0.222222  0.000000  0.473684
Cr404  Cr  0.333333  0.000000  0.473684
Cr405  Cr  0.444444  0.000000  0.473684
Cr406  Cr  0.555556  0.000000  0.473684
Cr407  Cr  0.666667  0.000000  0.473684
Cr408  Cr  0.777778  0.000000  0.473684
Cr409  Cr  0.888889  0.000000  0.473684
Cr410  Cr  1.000000  0.000000  0.473684
Cr411  Cr  0.000000  0.111111  0.473684
Cr412  Cr  0.111111  0.111111  0.473684
Cr413  Cr  0.222222  0.111111  0.473684
Cr414  Cr  0.333333  0.111111  0.473684
Cr415  Cr  0.444444  0.111111  0.473684
Cr416  Cr  0.555556  0.111111  0.473684
Cr417  Cr  0.666667  0.111111  0.473684
Cr418  Cr  0.777778  0.111111  0.473684
Cr419  Cr  0.888889  0.111111  0.473684
Cr420  Cr  1.000000  0.111111  0.473684
Cr421  Cr  0.000000  0.222222  0.473684
Cr422  Cr  0.111111  0.222222  0.473684
Cr423  Cr  0.222222  0.222222  0.473684
Cr424  Cr  0.333333  0.222222  0.473684
Cr425  Cr  0.444444  0.222222  0.473684
Cr426  Cr  0.555556  0.222222  0.473684
Cr427  Cr  0.666667  0.222222  0.473684
Cr428  Cr  0.777778  0.222222  0.473684
Cr429  Cr  0.888889  0.222222  0.473684
Cr430  Cr  1.000000  0.222222  0.473684
Cr431  Cr  0.000000  0.333333  0.473684
Cr432  Cr  0.111111  0.333333  0.473684
Cr433  Cr  0.222222  0.333333  0.473684
Cr434  Cr  0.333333  0.333333  0.473684
Cr435  Cr  0.444444  0.333333  0.473684
Cr436  Cr  0.555556  0.333333  0.473684
Cr437  Cr  0.666667  0.333333  0.473684
Cr438  Cr  0.777778  0.333333  0.473684
Cr439  Cr  0.888889  0.333333  0.473684
Cr440  Cr  1.000000  0.333333  0.473684
Cr441  Cr  0.000000  0.444444  0.473684
Cr442  Cr  0.111111  0.444444  0.473684
Cr443  Cr  0.222222  0.444444  0.473684
Cr444  Cr  0.333333  0.444444  0.473684
Cr445  Cr  0.444444  0.444444  0.473684
Cr446  Cr  0.555556  0.444444  0.473684
Cr447  Cr  0.666667  0.444444  0.473684
Cr448  Cr  0.777778  0.444444  0.473684
Cr449  Cr  0.888889  0.444444  0.473684
Cr450  Cr  1.000000  0.444444  0.473684
Cr451  Cr  0.000000  0.000000  0.578947
Cr452  Cr  0.111111  0.000000  0.578947
Cr453  Cr  0.222222  0.000000  0.578947
Cr454  Cr  0.333333  0.000000  0.578947
Cr455  Cr  0.444444  0.000000  0.578947
Cr456  Cr  0.555556  0.000000  0.578947
Cr457  Cr  0.666667  0.000000  0.578947
Cr458  Cr  0.777778  0.000000  0.578947
Cr459  Cr  0.888889  0.000000  0.578947
Cr460  Cr  1.000000  0.000000  0.578947
Cr461  Cr  0.000000  0.111111  0.578947
Cr462  Cr  0.111111  0.111111  0.578947
Cr463  Cr  0.222222  0.111111  0.578947
Cr464  Cr  0.333333  0.111111  0.578947
Cr465  Cr  0.444444  0.111111  0.578947
Cr466  Cr  0.555556  0.111111  0.578947
Cr467  Cr  0.666667  0.111111  0.578947
Cr468  Cr  0.777778  0.111111  0.578947
Cr469  Cr  0.888889  0.111111  0.578947
Cr470  Cr  1.000000  0.111111  0.578947
Cr471  Cr  0.000000  0.222222  0.578947
Cr472  Cr  0.111111  0.222222  0.578947
Cr473  Cr  0.222222  0.222222  0.578947
Cr474  Cr  0.333333  0.222222  0.578947
Cr475  Cr  0.444444  0.222222  0.578947
Cr476  Cr  0.555556  0.222222  0.578947
Cr477  Cr  0.666667  0.222222  0.578947
Cr478  Cr  0.777778  0.222222  0.578947
Cr479  Cr  0.888889  0.222222  0.578947
Cr480  Cr  1.000000  0.222222  0.578947
Cr481  Cr  0.000000  0.333333  0.578947
Cr482  Cr  0.111111  0.333333  0.578947
Cr483  Cr  0.222222  0.333333  0.578947
Cr484  Cr  0.333333  0.333333  0.578947
Cr485  Cr  0.444444  0.333333  0.578947
Cr486  Cr  0.555556  0.333333  0.578947
Cr487  Cr  0.666667  0.333333  0.578947
Cr488  Cr  0.777778  0.333333  0.578947
Cr489  Cr  0.888889  0.333333  0.578947
Cr490  Cr  1.000000  0.333333  0.578947
Cr491  Cr  0.000000  0.444444  0.578947
Cr492  Cr  0.111111  0.444444  0.578947
Cr493  Cr  0.222222  0.444444  0.578947
Cr494  Cr  0.333333  0.444444  0.578947
Cr495  Cr  0.444444  0.444444  0.578947
Cr496  Cr  0.555556  0.444444  0.578947
Cr497  Cr  0.666667  0.444444  0.578947
Cr498  Cr  0.777778  0.444444  0.578947
Cr499  Cr  0.888889  0.444444  0.578947
Cr500  Cr  1.000000  0.444444  0.578947
Cr501  Cr  0.000000  0.555556  0.473684
Cr502  Cr  0.111111  0.555556  0.473684
Cr503  Cr  0.222222  0.555556  0.473684
Cr504  Cr  0.333333  0.555556  0.473684
Cr505  Cr  0.444444  0.555556  0.473684
Cr506  Cr  0.555556  0.555556  0.473684
Cr507  Cr  0.666667  0.555556  0.473684
Cr508  Cr  0.777778  0.555556  0.473684
Cr509  Cr  0.888889  0.555556  0.473684
Cr510  Cr  1.000000  0.555556  0.473684
Cr511  Cr  0.000000  0.666667  0.473684
Cr512  Cr  0.111111  0.666667  0.473684
Cr513  Cr  0.222222  0.666667  0.473684
Cr514  Cr  0.333333  0.666667  0.473684
Cr515  Cr  0.444444  0.666667  0.473684
Cr516  Cr  0.555556  0.666667  0.473684
Cr517  Cr  0.666667  0.666667  0.473684
Cr518  Cr  0.777778  0.666667  0.473684
Cr519  Cr  0.888889  0.666667  0.473684
Cr520  Cr  1.000000  0.666667  0.473684
Cr521  Cr  0.000000  0.777778  0.473684
Cr522  Cr  0.111111  0.777778  0.473684
Cr523  Cr  0.222222  0.777778  0.473684
Cr524  Cr  0.333333  0.777778  0.473684
Cr525  Cr  0.444444  0.777778  0.473684
Cr526  Cr  0.555556  0.777778  0.473684
Cr527  Cr  0.666667  0.777778  0.473684
Cr528  Cr  0.777778  0.777778  0.473684
Cr529  Cr  0.888889  0.777778  0.473684
Cr530  Cr  1.000000  0.777778  0.473684
Cr531  Cr  0.000000  0.888889  0.473684
Cr532  Cr  0.111111  0.888889  0.473684
Cr533  Cr  0.222222  0.888889  0.473684
Cr534  Cr  0.333333  0.888889  0.473684
Cr535  Cr  0.444444  0.888889  0.473684
Cr536  Cr  0.555556  0.888889  0.473684
Cr537  Cr  0.666667  0.888889  0.473684
Cr538  Cr  0.777778  0.888889  0.473684
Cr539  Cr  0.888889  0.888889  0.473684
Cr540  Cr  1.000000  0.888889  0.473684
Cr541  Cr  0.000000  1.000000  0.473684
Cr542  Cr  0.111111  1.000000  0.473684
Cr543  Cr  0.222222  1.000000  0.473684
Cr544  Cr  0.333333  1.000000  0.473684
Cr545  Cr  0.444444  1.000000  0.473684
Cr546  Cr  0.555556  1.000000  0.473684
Cr547  Cr  0.666667  1.000000  0.473684
Cr548  Cr  0.777778  1.000000  0.473684
Cr549  Cr  0.888889  1.000000  0.473684
Cr550  Cr  1.000000  1.000000  0.473684
Cr551  Cr  0.000000  0.555556  0.578947
Cr552  Cr  0.111111  0.555556  0.578947
Cr553  Cr  0.222222  0.555556  0.578947
Cr554  Cr  0.333333  0.555556  0.578947
Cr555  Cr  0.444444  0.555556  0.578947
Cr556  Cr  0.555556  0.555556  0.578947
Cr557  Cr  0.666667  0.555556  0.578947
Cr558  Cr  0.777778  0.555556  0.578947
Cr559  Cr  0.888889  0.555556  0.578947
Cr560  Cr  1.000000  0.555556  0.578947
Cr561  Cr  0.000000  0.666667  0.578947
Cr562  Cr  0.111111  0.666667  0.578947
Cr563  Cr  0.222222  0.666667  0.578947
Cr564  Cr  0.333333  0.666667  0.578947
Cr565  Cr  0.444444  0.666667  0.578947
Cr566  Cr  0.555556  0.666667  0.578947
Cr567  Cr  0.666667  0.666667  0.578947
Cr568  Cr  0.777778  0.666667  0.578947
Cr569  Cr  0.888889  0.666667  0.578947
Cr570  Cr  1.000000  0.666667  0.578947
Cr571  Cr  0.000000  0.777778  0.578947
Cr572  Cr  0.111111  0.777778  0.578947
Cr573  Cr  0.222222  0.777778  0.578947
Cr574  Cr  0.333333  0.777778  0.578947
Cr575  Cr  0.444444  0.777778  0.578947
Cr576  Cr  0.555556  0.777778  0.578947
Cr577  Cr  0.666667  0.777778  0.578947
Cr578  Cr  0.777778  0.777778  0.578947
Cr579  Cr  0.888889  0.777778  0.578947
Cr580  Cr  1.000000  0.777778  0.578947
Cr581  Cr  0.000000  0.888889  0.578947
Cr582  Cr  0.111111  0.888889  0.578947
Cr583  Cr  0.222222  0.888889  0.578947
Cr584  Cr  0.333333  0.888889  0.578947
Cr585  Cr  0.444444  0.888889  0.578947
Cr586  Cr  0.555556  0.888889  0.578947
Cr587  Cr  0.666667  0.888889  0.578947
Cr588  Cr  0.777778  0.888889  0.578947
Cr589  Cr  0.888889  0.888889  0.578947
Cr590  Cr  1.000000  0.888889  0.578947
Cr591  Cr  0.000000  1.000000  0.578947
Cr592  Cr  0.111111  1.000000  0.578947
Cr593  Cr  0.222222  1.000000  0.578947
Cr594  Cr  0.333333  1.000000  0.578947
Cr595  Cr  0.444444  1.000000  0.578947
Cr596  Cr  0.555556  1.000000  0.578947
Cr597  Cr  0.666667  1.000000  0.578947
Cr598  Cr  0.777778  1.000000  0.578947
Cr599  Cr  0.888889  1.000000  0.578947
Cr600  Cr  1.000000  1.000000  0.578947
Cr601  Cr  0.000000  0.000000  0.684211
Cr602  Cr  0.111111  0.000000  0.684211
Cr603  Cr  0.222222  0.000000  0.684211
Cr604  Cr  0.333333  0.000000  0.684211
Cr605  Cr  0.444444  0.000000  0.684211
Cr606  Cr  0.555556  0.000000  0.684211
Cr607  Cr  0.666667  0.000000  0.684211
Cr608  Cr  0.777778  0.000000  0.684211
Cr609  Cr  0.888889  0.000000  0.684211
Cr610  Cr  1.000000  0.000000  0.684211
Cr611  Cr  0.000000  0.111111  0.684211
Cr612  Cr  0.111111  0.111111  0.684211
Cr613  Cr  0.222222  0.111111  0.684211
Cr614  Cr  0.333333  0.111111  0.684211
Cr615  Cr  0.444444  0.111111  0.684211
Cr616  Cr  0.555556  0.111111  0.684211
Cr617  Cr  0.666667  0.111111  0.684211
Cr618  Cr  0.777778  0.111111  0.684211
Cr619  Cr  0.888889  0.111111  0.684211
Cr620  Cr  1.000000  0.111111  0.684211
Cr621  Cr  0.000000  0.222222  0.684211
Cr622  Cr  0.111111  0.222222  0.684211
Cr623  Cr  0.222222  0.222222  0.684211
Cr624  Cr  0.333333  0.222222  0.684211
Cr625  Cr  0.444444  0.222222  0.684211
Cr626  Cr  0.555556  0.222222  0.684211
Cr627  Cr  0.666667  0.222222  0.684211
Cr628  Cr  0.777778  0.222222  0.684211
Cr629  Cr  0.888889  0.222222  0.684211
Cr630  Cr  1.000000  0.222222  0.684211
Cr631  Cr  0.000000  0.333333  0.684211
Cr632  Cr  0.111111  0.333333  0.684211
Cr633  Cr  0.222222  0.333333  0.684211
Cr634  Cr  0.333333  0.333333  0.684211
Cr635  Cr  0.444444  0.333333  0.684211
Cr636  Cr  0.555556  0.333333  0.684211
Cr637  Cr  0.666667  0.333333  0.684211
Cr638  Cr  0.777778  0.333333  0.684211
Cr639  Cr  0.888889  0.333333  0.684211
Cr640  Cr  1.000000  0.333333  0.684211
Cr641  Cr  0.000000  0.444444  0.684211
Cr642  Cr  0.111111  0.444444  0.684211
Cr643  Cr  0.222222  0.444444  0.684211
Cr644  Cr  0.333333  0.444444  0.684211
Cr645  Cr  0.444444  0.444444  0.684211
Cr646  Cr  0.555556  0.444444  0.684211
Cr647  Cr  0.666667  0.444444  0.684211
Cr648  Cr  0.777778  0.444444  0.684211
Cr649  Cr  0.888889  0.444444  0.684211
Cr650  Cr  1.000000  0.444444  0.684211
Cr651  Cr  0.000000  0.000000  0.789474
Cr652  Cr  0.111111  0.000000  0.789474
Cr653  Cr  0.222222  0.000000  0.789474
Cr654  Cr  0.333333  0.000000  0.789474
Cr655  Cr  0.444444  0.000000  0.789474
Cr656  Cr  0.555556  0.000000  0.789474
Cr657  Cr  0.666667  0.000000  0.789474
Cr658  Cr  0.777778  0.000000  0.789474
Cr659  Cr  0.888889  0.000000  0.789474
Cr660  Cr  1.000000  0.000000  0.789474
Cr661  Cr  0.000000  0.111111  0.789474
Cr662  Cr  0.111111  0.111111  0.789474
Cr663  Cr  0.222222  0.111111  0.789474
Cr664  Cr  0.333333  0.111111  0.789474
Cr665  Cr  0.444444  0.111111  0.789474
Cr666  Cr  0.555556  0.111111  0.789474
Cr667  Cr  0.666667  0.111111  0.789474
Cr668  Cr  0.777778  0.111111  0.789474
Cr669  Cr  0.888889  0.111111  0.789474
Cr670  Cr  1.000000  0.111111  0.789474
Cr671  Cr  0.000000  0.222222  0.789474
Cr672  Cr  0.111111  0.222222  0.789474
Cr673  Cr  0.222222  0.222222  0.789474
Cr674  Cr  0.333333  0.222222  0.789474
Cr675  Cr  0.444444  0.222222  0.789474
Cr676  Cr  0.555556  0.222222  0.789474
Cr677  Cr  0.666667  0.222222  0.789474
Cr678  Cr  0.777778  0.222222  0.789474
Cr679  Cr  0.888889  0.222222  0.789474
Cr680  Cr  1.000000  0.222222  0.789474
Cr681  Cr  0.000000  0.333333  0.789474
Cr682  Cr  0.111111  0.333333  0.789474
Cr683  Cr  0.222222  0.333333  0.789474
Cr684  Cr  0.333333  0.333333  0.789474
Cr685  Cr  0.444444  0.333333  0.789474
Cr686  Cr  0.555556  0.333333  0.789474
Cr687  Cr  0.666667  0.333333  0.789474
Cr688  Cr  0.777778  0.333333  0.789474
Cr689  Cr  0.888889  0.333333  0.789474
Cr690  Cr  1.000000  0.333333  0.789474
Cr691  Cr  0.000000  0.444444  0.789474
Cr692  Cr  0.111111  0.444444  0.789474
Cr693  Cr  0.222222  0.444444  0.789474
Cr694  Cr  0.333333  0.444444  0.789474
Cr695  Cr  0.444444  0.444444  0.789474
Cr696  Cr  0.555556  0.444444  0.789474
Cr697  Cr  0.666667  0.444444  0.789474
Cr698  Cr  0.777778  0.444444  0.789474
Cr699  Cr  0.888889  0.444444  0.789474
Cr700  Cr  1.000000  0.444444  0.789474
Cr701  Cr  0.000000  0.555556  0.684211
Cr702  Cr  0.111111  0.555556  0.684211
Cr703  Cr  0.222222  0.555556  0.684211
Cr704  Cr  0.333333  0.555556  0.684211
Cr705  Cr  0.444444  0.555556  0.684211
Cr706  Cr  0.555556  0.555556  0.684211
Cr707  Cr  0.666667  0.555556  0.684211
Cr708  Cr  0.777778  0.555556  0.684211
Cr709  Cr  0.888889  0.555556  0.684211
Cr710  Cr  1.000000  0.555556  0.684211
Cr711  Cr  0.000000  0.666667  0.684211
Cr712  Cr  0.111111  0.666667  0.684211
Cr713  Cr  0.222222  0.666667  0.684211
Cr714  Cr  0.333333  0.666667  0.684211
Cr715  Cr  0.444444  0.666667  0.684211
Cr716  Cr  0.555556  0.666667  0.684211
Cr717  Cr  0.666667  0.666667  0.684211
Cr718  Cr  0.777778  0.666667  0.684211
Cr719  Cr  0.888889  0.666667  0.684211
Cr720  Cr  1.000000  0.666667  0.684211
Cr721  Cr  0.000000  0.777778  0.684211
Cr722  Cr  0.111111  0.777778  0.684211
Cr723  Cr  0.222222  0.777778  0.684211
Cr724  Cr  0.333333  0.777778  0.684211
Cr725  Cr  0.444444  0.777778  0.684211
Cr726  Cr  0.555556  0.777778  0.684211
Cr727  Cr  0.666667  0.777778  0.684211
Cr728  Cr  0.777778  0.777778  0.684211
Cr729  Cr  0.888889  0.777778  0.684211
Cr730  Cr  1.000000  0.777778  0.684211
Cr731  Cr  0.000000  0.888889  0.684211
Cr732  Cr  0.111111  0.888889  0.684211
Cr733  Cr  0.222222  0.888889  0.684211
Cr734  Cr  0.333333  0.888889  0.684211
Cr735  Cr  0.444444  0.888889  0.684211
Cr736  Cr  0.555556  0.888889  0.684211
Cr737  Cr  0.666667  0.888889  0.684211
Cr738  Cr  0.777778  0.888889  0.684211
Cr739  Cr  0.888889  0.888889  0.684211
Cr740  Cr  1.000000  0.888889  0.684211
Cr741  Cr  0.000000  1.000000  0.684211
Cr742  Cr  0.111111  1.000000  0.684211
Cr743  Cr  0.222222  1.000000  0.684211
Cr744  Cr  0.333333  1.000000  0.684211
Cr745  Cr  0.444444  1.000000  0.684211
Cr746  Cr  0.555556  1.000000  0.684211
Cr747  Cr  0.666667  1.000000  0.684211
Cr748  Cr  0.777778  1.000000  0.684211
Cr749  Cr  0.888889  1.000000  0.684211
Cr750  Cr  1.000000  1.000000  0.684211
Cr751  Cr  0.000000  0.555556  0.789474
Cr752  Cr  0.111111  0.555556  0.789474
Cr753  Cr  0.222222  0.555556  0.789474
Cr754  Cr  0.333333  0.555556  0.789474
Cr755  Cr  0.444444  0.555556  0.789474
Cr756  Cr  0.555556  0.555556  0.789474
Cr757  Cr  0.666667  0.555556  0.789474
Cr758  Cr  0.777778  0.555556  0.789474
Cr759  Cr  0.888889  0.555556  0.789474
Cr760  Cr  1.000000  0.555556  0.789474
Cr761  Cr  0.000000  0.666667  0.789474
Cr762  Cr  0.111111  0.666667  0.789474
Cr763  Cr  0.222222  0.666667  0.789474
Cr764  Cr  0.333333  0.666667  0.789474
Cr765  Cr  0.444444  0.666667  0.789474
Cr766  Cr  0.555556  0.666667  0.789474
Cr767  Cr  0.666667  0.666667  0.789474
Cr768  Cr  0.777778  0.666667  0.789474
Cr769  Cr  0.888889  0.666667  0.789474
Cr770  Cr  1.000000  0.666667  0.789474
Cr771  Cr  0.000000  0.777778  0.789474
Cr772  Cr  0.111111  0.777778  0.789474
Cr773  Cr  0.222222  0.777778  0.789474
Cr774  Cr  0.333333  0.777778  0.789474
Cr775  Cr  0.444444  0.777778  0.789474
Cr776  Cr  0.555556  0.777778  0.789474
Cr777  Cr  0.666667  0.777778  0.789474
Cr778  Cr  0.777778  0.777778  0.789474
Cr779  Cr  0.888889  0.777778  0.789474
Cr780  Cr  1.000000  0.777778  0.789474
Cr781  Cr  0.000000  0.888889  0.789474
Cr782  Cr  0.111111  0.888889  0.789474
Cr783  Cr  0.222222  0.888889  0.789474
Cr784  Cr  0.333333  0.888889  0.789474
Cr785  Cr  0.444444  0.888889  0.789474
Cr786  Cr  0.555556  0.888889  0.789474
Cr787  Cr  0.666667  0.888889  0.789474
Cr788  Cr  0.777778  0.888889  0.789474
Cr789  Cr  0.888889  0.888889  0.789474
Cr790  Cr  1.000000  0.888889  0.789474
Cr791  Cr  0.000000  1.000000  0.789474
Cr792  Cr  0.111111  1.000000  0.789474
Cr793  Cr  0.222222  1.000000  0.789474
Cr794  Cr  0.333333  1.000000  0.789474
Cr795  Cr  0.444444  1.000000  0.789474
Cr796  Cr  0.555556  1.000000  0.789474
Cr797  Cr  0.666667  1.000000  0.789474
Cr798  Cr  0.777778  1.000000  0.789474
Cr799  Cr  0.888889  1.000000  0.789474
Cr800  Cr  1.000000  1.000000  0.789474
Cr801  Cr  0.000000  0.000000  0.894737
Cr802  Cr  0.111111  0.000000  0.894737
Cr803  Cr  0.222222  0.000000  0.894737
Cr804  Cr  0.333333  0.000000  0.894737
Cr805  Cr  0.444444  0.000000  0.894737
Cr806  Cr  0.555556  0.000000  0.894737
Cr807  Cr  0.666667  0.000000  0.894737
Cr808  Cr  0.777778  0.000000  0.894737
Cr809  Cr  0.888889  0.000000  0.894737
Cr810  Cr  1.000000  0.000000  0.894737
Cr811  Cr  0.000000  0.111111  0.894737
Cr812  Cr  0.111111  0.111111  0.894737
Cr813  Cr  0.222222  0.111111  0.894737
Cr814  Cr  0.333333  0.111111  0.894737
Cr815  Cr  0.444444  0.111111  0.894737
Cr816  Cr  0.555556  0.111111  0.894737
Cr817  Cr  0.666667  0.111111  0.894737
Cr818  Cr  0.777778  0.111111  0.894737
Cr819  Cr  0.888889  0.111111  0.894737
Cr820  Cr  1.000000  0.111111  0.894737
Cr821  Cr  0.000000  0.222222  0.894737
Cr822  Cr  0.111111  0.222222  0.894737
Cr823  Cr  0.222222  0.222222  0.894737
Cr824  Cr  0.333333  0.222222  0.894737
Cr825  Cr  0.444444  0.222222  0.894737
Cr826  Cr  0.555556  0.222222  0.894737
Cr827  Cr  0.666667  0.222222  0.894737
Cr828  Cr  0.777778  0.222222  0.894737
Cr829  Cr  0.888889  0.222222  0.894737
Cr830  Cr  1.000000  0.222222  0.894737
Cr831  Cr  0.000000  0.333333  0.894737
Cr832  Cr  0.111111  0.333333  0.894737
Cr833  Cr  0.222222  0.333333  0.894737
Cr834  Cr  0.333333  0.333333  0.894737
Cr835  Cr  0.444444  0.333333  0.894737
Cr836  Cr  0.555556  0.333333  0.894737
Cr837  Cr  0.666667  0.333333  0.894737
Cr838  Cr  0.777778  0.333333  0.894737
Cr839  Cr  0.888889  0.333333  0.894737
Cr840  Cr  1.000000  0.333333  0.894737
Cr841  Cr  0.000000  0.444444  0.894737
Cr842  Cr  0.111111  0.444444  0.894737
Cr843  Cr  0.222222  0.444444  0.894737
Cr844  Cr  0.333333  0.444444  0.894737
Cr845  Cr  0.444444  0.444444  0.894737
Cr846  Cr  0.555556  0.444444  0.894737
Cr847  Cr  0.666667  0.444444  0.894737
Cr848  Cr  0.777778  0.444444  0.894737
Cr849  Cr  0.888889  0.444444  0.894737
Cr850  Cr  1.000000  0.444444  0.894737
Cr851  Cr  0.000000  0.000000  1.000000
Cr852  Cr  0.111111  0.000000  1.000000
Cr853  Cr  0.222222  0.000000  1.000000
Cr854  Cr  0.333333  0.000000  1.000000
Cr855  Cr  0.444444  0.000000  1.000000
Cr856  Cr  0.555556  0.000000  1.000000
Cr857  Cr  0.666667  0.000000  1.000000
Cr858  Cr  0.777778  0.000000  1.000000
Cr859  Cr  0.888889  0.000000  1.000000
Cr860  Cr  1.000000  0.000000  1.000000
Cr861  Cr  0.000000  0.111111  1.000000
Cr862  Cr  0.111111  0.111111  1.000000
Cr863  Cr  0.222222  0.111111  1.000000
Cr864  Cr  0.333333  0.111111  1.000000
Cr865  Cr  0.444444  0.111111  1.000000
Cr866  Cr  0.555556  0.111111  1.000000
Cr867  Cr  0.666667  0.111111  1.000000
Cr868  Cr  0.777778  0.111111  1.000000
Cr869  Cr  0.888889  0.111111  1.000000
Cr870  Cr  1.000000  0.111111  1.000000
Cr871  Cr  0.000000  0.222222  1.000000
Cr872  Cr  0.111111  0.222222  1.000000
Cr873  Cr  0.222222  0.222222  1.000000
Cr874  Cr  0.333333  0.222222  1.000000
Cr875  Cr  0.444444  0.222222  1.000000
Cr876  Cr  0.555556  0.222222  1.000000
Cr877  Cr  0.666667  0.222222  1.000000
Cr878  Cr  0.777778  0.222222  1.000000
Cr879  Cr  0.888889  0.222222  1.000000
Cr880  Cr  1.000000  0.222222  1.000000
Cr881  Cr  0.000000  0.333333  1.000000
Cr882  Cr  0.111111  0.333333  1.000000
Cr883  Cr  0.222222  0.333333  1.000000
Cr884  Cr  0.333333  0.333333  1.000000
Cr885  Cr  0.444444  0.333333  1.000000
Cr886  Cr  0.555556  0.333333  1.000000
Cr887  Cr  0.666667  0.333333  1.000000
Cr888  Cr  0.777778  0.333333  1.000000
Cr889  Cr  0.888889  0.333333  1.000000
Cr890  Cr  1.000000  0.333333  1.000000
Cr891  Cr  0.000000  0.444444  1.000000
Cr892  Cr  0.111111  0.444444  1.000000
Cr893  Cr  0.222222  0.444444  1.000000
Cr894  Cr  0.333333  0.444444  1.000000
Cr895  Cr  0.444444  0.444444  1.000000
Cr896  Cr  0.555556  0.444444  1.000000
Cr897  Cr  0.666667  0.444444  1.000000
Cr898  Cr  0.777778  0.444444  1.000000
Cr899  Cr  0.888889  0.444444  1.000000
Cr900  Cr  1.000000  0.444444  1.000000
Cr901  Cr  0.000000  0.555556  0.894737
Cr902  Cr  0.111111  0.555556  0.894737
Cr903  Cr  0.222222  0.555556  0.894737
Cr904  Cr  0.333333  0.555556  0.894737
Cr905  Cr  0.444444  0.555556  0.894737
Cr906  Cr  0.555556  0.555556  0.894737
Cr907  Cr  0.666667  0.555556  0.894737
Cr908  Cr  0.777778  0.555556  0.894737
Cr909  Cr  0.888889  0.555556  0.894737
Cr910  Cr  1.000000  0.555556  0.894737
Cr911  Cr  0.000000  0.666667  0.894737
Cr912  Cr  0.111111  0.666667  0.894737
Cr913  Cr  0.222222  0.666667  0.894737
Cr914  Cr  0.333333  0.666667  0.894737
Cr915  Cr  0.444444  0.666667  0.894737
Cr916  Cr  0.555556  0.666667  0.894737
Cr917  Cr  0.666667  0.666667  0.894737
Cr918  Cr  0.777778  0.666667  0.894737
Cr919  Cr  0.888889  0.666667  0.894737
Cr920  Cr  1.000000  0.666667  0.894737
Cr921  Cr  0.000000  0.777778  0.894737
Cr922  Cr  0.111111  0.777778  0.894737
Cr923  Cr  0.222222  0.777778  0.894737
Cr924  Cr  0.333333  0.777778  0.894737
Cr925  Cr  0.444444  0.777778  0.894737
Cr926  Cr  0.555556  0.777778  0.894737
Cr927  Cr  0.666667  0.777778  0.894737
Cr928  Cr  0.777778  0.777778  0.894737
Cr929  Cr  0.888889  0.777778  0.894737
Cr930  Cr  1.000000  0.777778  0.894737
Cr931  Cr  0.000000  0.888889  0.894737
Cr932  Cr  0.111111  0.888889  0.894737
Cr933  Cr  0.222222  0.888889  0.894737
Cr934  Cr  0.333333  0.888889  0.894737
Cr935  Cr  0.444444  0.888889  0.894737
Cr936  Cr  0.555556  0.888889  0.894737
Cr937  Cr  0.666667  0.888889  0.894737
Cr938  Cr  0.777778  0.888889  0.894737
Cr939  Cr  0.888889  0.888889  0.894737
Cr940  Cr  1.000000  0.888889  0.894737
Cr941  Cr  0.000000  1.000000  0.894737
Cr942  Cr  0.111111  1.000000  0.894737
Cr943  Cr  0.222222  1.000000  0.894737
Cr944  Cr  0.333333  1.000000  0.894737
Cr945  Cr  0.444444  1.000000  0.894737
Cr946  Cr  0.555556  1.000000  0.894737
Cr947  Cr  0.666667  1.000000  0.894737
Cr948  Cr  0.777778  1.000000  0.894737
Cr949  Cr  0.888889  1.000000  0.894737
Cr950  Cr  1.000000  1.000000  0.894737
Cr951  Cr  0.000000  0.555556  1.000000
Cr952  Cr  0.111111  0.555556  1.000000
Cr953  Cr  0.222222  0.555556  1.000000
Cr954  Cr  0.333333  0.555556  1.000000
Cr955  Cr  0.444444  0.555556  1.000000
Cr956  Cr  0.555556  0.555556  1.000000
Cr957  Cr  0.666667  0.555556  1.000000
Cr958  Cr  0.777778  0.555556  1.000000
Cr959  Cr  0.888889  0.555556  1.000000
Cr960  Cr  1.000000  0.555556  1.000000
Cr961  Cr  0.000000  0.666667  1.000000
Cr962  Cr  0.111111  0.666667  1.000000
Cr963  Cr  0.222222  0.666667  1.000000
Cr964  Cr  0.333333  0.666667  1.000000
Cr965  Cr  0.444444  0.666667  1.000000
Cr966  Cr  0.555556  0.666667  1.000000
Cr967  Cr  0.666667  0.666667  1.000000
Cr968  Cr  0.777778  0.666667  1.000000
Cr969  Cr  0.888889  0.666667  1.000000
Cr970  Cr  1.000000  0.666667  1.000000
Cr971  Cr  0.000000  0.777778  1.000000
Cr972  Cr  0.111111  0.777778  1.000000
Cr973  Cr  0.222222  0.777778  1.000000
Cr974  Cr  0.333333  0.777778  1.000000
Cr975  Cr  0.444444  0.777778  1.000000
Cr976  Cr  0.555556  0.777778  1.000000
Cr977  Cr  0.666667  0.777778  1.000000
Cr978  Cr  0.777778  0.777778  1.000000
Cr979  Cr  0.888889  0.777778  1.000000
Cr980  Cr  1.000000  0.777778  1.000000
Cr981  Cr  0.000000  0.888889  1.000000
Cr982  Cr  0.111111  0.888889  1.000000
Cr983  Cr  0.222222  0.888889  1.000000
Cr984  Cr  0.333333  0.888889  1.000000
Cr985  Cr  0.444444  0.888889  1.000000
Cr986  Cr  0.555556  0.888889  1.000000
Cr987  Cr  0.666667  0.888889  1.000000
Cr988  Cr  0.777778  0.888889  1.000000
Cr989  Cr  0.888889  0.888889  1.000000
Cr990  Cr  1.000000  0.888889  1.000000
Cr991  Cr  0.000000  1.000000  1.000000
Cr992  Cr  0.111111  1.000000  1.000000
Cr993  Cr  0.222222  1.000000  1.000000
Cr994  Cr  0.333333  1.000000  1.000000
Cr995  Cr  0.444444  1.000000  1.000000
Cr996  Cr  0.555556  1.000000  1.000000
Cr997  Cr  0.666667  1.000000  1.000000
Cr998  Cr  0.777778  1.000000  1.000000
Cr999  Cr  0.888889  1.000000  1.000000
Cr1000  Cr  1.000000  1.000000  1.000000

# end of cif file
